! FDS input file generated by PyFDS
! Room Fire Test

&HEAD CHID='room_fire', TITLE='Room Fire Test' /

&TIME T_END=600.0 /

! --- Meshes ---
&MESH IJK=50,50,25, XB=0,5,0,5,0,2.5 /

! --- Surfaces ---
&SURF ID='BURNER', COLOR='RED', HRRPUA=1000.0 /

! --- Obstructions ---
&OBST XB=2,3,2,3,0,0.1, SURF_ID='BURNER' /

! --- Devices ---
&DEVC ID='TEMP_CEILING', QUANTITY='TEMPERATURE', XYZ=2.5,2.5,2.4 /


&TAIL /
